LAMMPS (12 Dec 2018)
# MD Simulation of Confined Electrolyte #
# The LAMMPS input script enables simulations of ions confined between nanoparticles (NPs) or other material surfaces;
# The script contains "read data" command which defines the model to be simulated; The model is generated by C++ code in Github (https://softmaterialslab.github.io/nanoconfinement-md/);
# The surfaces at z = âˆ’l/2 to z = l/2 are treated as unpolarized planar walls. The ion interact with walls directly;
# Length of confinement is of the order of nanometers;
# Coulombic interactions are calculated by 3D Ewald method; (charged sheets method is applied in nanoconfinement-md code);
# Users can extract the ionic structure (density profile) for a wide variety of ionic and environmental parameters;
# Input Pararmeters in Simulation #
# Note that for style lj, all quantities are in reduced LJ units;
# All ions have identical sizes;
# Mass of positive ion = Mass of chlorine ion;
# Unit of length = Diameter of positive ion =  Diameter of negative ion;
# Positive charge = 1 e; Negative charge = -1 e;
# lx = ly and periodic boundary; lz is nonperiodic boundary;
# epsilon_water = 80;
# room_temperature = 298 in Kelvin;
# cutoff for LJ interactions = 2 ^ (1/6) = 1.122462048 (in reduced lj unit);
# ------------------------------ INITIALIZATION-----------------------------------
units           lj                                      # The units of all quantities specified in simulation are in lj;
dimension       3                                       # It runs 3d simulations;
boundary        p       p       f                       # The simulation box is periodic (p) in  x and y directions and nonperiodic (f) in z direction;
atom_style      charge                                  # Charges are associated with the atoms;

# ------------------------------ SETS PARAMETERS ----------------------------------
neighbor        0.1     bin                             # Extra distance beyond force cutoff (in reduced lj units);
neigh_modify    every   1    delay   0   check   yes    # The every, delay, check options affect how often lists are built as a simulation runs. "delay" means never build new lists until at least N steps after the previous build. "every" means build lists every M steps. check = yes, then every and delay settings determine when a build may possibly be performed;

# ------------------------ CREAT SIMULATION BOX, ATOMS ----------------------------
read_data       outfiles/ip.lammps.xyz                  # The atoms are listed in order of atom-ID atom-type q x y z;
  orthogonal box = (-10.7281 -10.7281 -2.10094) to (10.7281 10.7281 2.10094)
  reading atoms ...
  5424 atoms

# ------------------------------ ATOM DEFINITION ----------------------------------
mass            1 1.0                                   # Mass of sodium (in reduced lj units);
mass            2 1.0                                   # Mass of chlorine is considered equal with Mass of sodium (in reduced lj units);
mass            3 1.0                                   # Mass of third type of atoms (walls);
group           positive_ions type 1
212 atoms in group positive_ions
group           negative_ions type 2
212 atoms in group negative_ions
group           mesh_points type 3
5000 atoms in group mesh_points
group           salt_ions union positive_ions negative_ions
424 atoms in group salt_ions
dielectric	80.000000                  # Dielectric constant of water. The constant is unitless;
# ------------------------------ ## INITIAL VELOCITIES ## ----------------------------------
velocity	positive_ions	create	1.0	87238748            # Generates an ensemble of velocities using a random number generator with the specified seed at the specified temperature. 1-kB*T,random seed;
velocity        negative_ions   create  1.0     87238748
# ------------------------------- FORCE FIELDS ------------------------------------
pair_style      lj/long/coul/long   cut  long     1.122462048  8.0  # Standard 12/6 Lennard-Jones and Coulombic potentials.Cutoff for L-J = sigma * 2^(1/6),for Coul = 8.0 (reduced lj units);
pair_coeff      1       1       1.0    1.000000   1.122462 # Epsilon, sigma, Cutoff distance (in reduced lj units);
pair_coeff      2       2       1.0    1.000000   1.122462 # Defaults:
pair_coeff      1       2       1.0    1.000000  1.122462 # Defaults:
pair_coeff      1       3       1.0    0.0        1.122462
pair_coeff      2       3       1.0    0.0        1.122462
pair_coeff      3       3       1.0    0.0        1.122462

fix wallhi      positive_ions  wall/lj126 zhi EDGE 1.0 0.500000 0.561231 # Here, sigma is the distance between center of particle and the nearest point of its surface to the wall (radius of ion);
fix_modify      wallhi energy yes
fix walllo      positive_ions  wall/lj126 zlo EDGE 1.0 0.500000  0.561231 #  Non-electrostatic interaction between ions and wall at  lz/2;
fix_modify      walllo energy yes
fix wallhii     negative_ions wall/lj126 zhi EDGE 1.0  0.500000  0.561231 #  Non-electrostatic interaction between ions and wall at -lz/2;
fix_modify      wallhii energy yes
fix wallloo     negative_ions wall/lj126 zlo EDGE 1.0  0.500000  0.561231 #  Non-electrostatic interaction between ions and wall at  lz/2;
fix_modify      wallloo energy yes

pair_modify     shift   yes                                              # The additive e_LJ for repulsion-only
kspace_style    pppm/disp 0.0001                                     # To use each timestep to compute Coulombic interactions; accuracy value is desired relative error in forces;
kspace_modify   slab      3.0                                        # The slab allows an Ewald to be used for a systems that are periodic in x,y but non-periodic in z;
# --------------------------------- SETTINGS --------------------------------------

# EQUILIBRATION
thermo_style	  custom    step   temp    vol    density   etotal  ke    pe   epair evdwl ecoul  elong    # Set the style and content for printing thermodynamic data to the screen and log file;
fix               equilibrate salt_ions nvt temp 1.0 1.0 0.1                      # This updates the position and velocity for atoms in the group each timestep in the canonical (nvt) ensemble. # T_start, T_stop, T_damp=100*timestep: The desired temperature at each timestep is a ramped value during the run from Tstart to Tstop. The Tdamp parameter is specified in time units and determines how rapidly the temperature is relaxed;
timestep        0.001000                                                # The timestep command specifies this dimensionless multiplier as the magnitude of the timestep relative to (tau);
thermo	        100                                          # How often does the data get dumped
run             1000                                         # Run time for equilibration;
PPPMDisp initialization ...
  Coulomb G vector (1/distance) = 0.338452
  Coulomb grid = 15 15 8
  Coulomb stencil order = 5
  Coulomb estimated absolute RMS force accuracy = 7.80495e-05
  Coulomb estimated relative force accuracy = 7.80495e-05
  3d grid and FFT values/proc = 4000 1800
  update every 1 steps, delay 0 steps, check yes
Step Temp Volume Density TotEng KinEng PotEng E_pair E_vdwl E_coul E_long
0  0.077816707    1934.4133     2.803951   0.11148141   0.11670354 -0.0052221279 -0.0062025043 0.0091339696 -0.0068222435 -0.0085142304
Averages over the last 6 of 11 rows, steps 500 to 1000:
Temp Volume Density TotEng KinEng PotEng E_pair E_vdwl E_coul E_long
0.0781663 1934.41 2.80395 0.101202 0.117228 -0.0160263 -0.0180574 0.00610817 -0.0130053 -0.0111603
Loop time of 279.268 on 1 procs for 1000 steps with 5424 atoms

write_restart   outfiles/equilibrated.electrolyte.system.*                        # Restart command to create a sample of fluid with which you can write a fix
PPPMDisp initialization ...
  Coulomb G vector (1/distance) = 0.338452
  Coulomb grid = 15 15 8
  Coulomb stencil order = 5
  Coulomb estimated absolute RMS force accuracy = 7.80495e-05
  Coulomb estimated relative force accuracy = 7.80495e-05
  3d grid and FFT values/proc = 4000 1800
unfix           equilibrate                                                       # Similar to a bracket close
dump	          mymovie  salt_ions    custom	100 outfiles/electrolyte_movie.xyz id  type  q  x   y   z

## Image Dump ##
dump	myimages all image 10000 outfiles/image.*.jpg type type size 1024 1024                	axes no 0.8 0.02 view 60 -30
dump_modify myimages pad 3
dump_modify myimages boxcolor black backcolor white

# GET DATA
fix             heat salt_ions nvt temp 1.0 1.0 0.1
timestep        0.001000                                                # The timestep command specifies this dimensionless multiplier as the magnitude of the timestep relative to (tau).
thermo          100                                          # How often does the data get dumped
run             9000                                          # Run time after equilibration;
PPPMDisp initialization ...
  Coulomb G vector (1/distance) = 0.338452
  Coulomb grid = 15 15 8
  Coulomb stencil order = 5
  Coulomb estimated absolute RMS force accuracy = 7.80495e-05
  Coulomb estimated relative force accuracy = 7.80495e-05
  3d grid and FFT values/proc = 4000 1800
Step Temp Volume Density TotEng KinEng PotEng E_pair E_vdwl E_coul E_long
1000  0.079946878    1934.4133     2.803951   0.10075064   0.11989821 -0.019147563 -0.021247539 0.0056169836 -0.014823039 -0.012041483
Averages over the last 46 of 91 rows, steps 5500 to 10000:
Temp Volume Density TotEng KinEng PotEng E_pair E_vdwl E_coul E_long
0.0777876 1934.41 2.80395 0.0964719 0.11666 -0.020188 -0.021628 0.00638052 -0.0145649 -0.0134437
Loop time of 2453.05 on 1 procs for 9000 steps with 5424 atoms

write_restart   outfiles/large.sample.electrolyte.*                               # Restart command to create a sample of fluid with which you can write a fix
PPPMDisp initialization ...
  Coulomb G vector (1/distance) = 0.338452
  Coulomb grid = 15 15 8
  Coulomb stencil order = 5
  Coulomb estimated absolute RMS force accuracy = 7.80495e-05
  Coulomb estimated relative force accuracy = 7.80495e-05
  3d grid and FFT values/proc = 4000 1800
unfix           heat                                                              # Similar to a bracket close

##################################################################################
# SIMULATION DONE
undump mymovie
undump myimages
shell          mv log.lammps outfiles/log.lammps
shell          sh infiles/cleanlog.sh # It creates outfiles/thermo.dat. thermo.dat file contains all numeric values in log.lammps without the printed information about the run. This makes it easy to plot.

print "LAMMPS Simulation Ended"
LAMMPS Simulation Ended
